
  Mrv1816 07251821472D          

 33 36  0  0  0  0            999 V2000
   -3.3036    0.8473    0.0000 C   0  0  0  0  0  0  0  0  0  0  0  0
   -4.0180    0.4348    0.0000 C   0  0  0  0  0  0  0  0  0  0  0  0
   -4.0180   -0.3902    0.0000 C   0  0  1  0  0  0  0  0  0  0  0  0
   -3.3036   -0.8027    0.0000 C   0  0  0  0  0  0  0  0  0  0  0  0
   -2.5891   -0.3902    0.0000 C   0  0  0  0  0  0  0  0  0  0  0  0
   -2.5891    0.4348    0.0000 C   0  0  1  0  0  0  0  0  0  0  0  0
   -1.8746    0.8473    0.0000 C   0  0  2  0  0  0  0  0  0  0  0  0
   -1.8746   -0.8027    0.0000 C   0  0  0  0  0  0  0  0  0  0  0  0
   -1.1602   -0.3902    0.0000 C   0  0  0  0  0  0  0  0  0  0  0  0
   -1.1602    0.4348    0.0000 C   0  0  1  0  0  0  0  0  0  0  0  0
   -1.1602    2.0849    0.0000 C   0  0  0  0  0  0  0  0  0  0  0  0
   -1.8746    1.6724    0.0000 C   0  0  0  0  0  0  0  0  0  0  0  0
   -0.4457    0.8473    0.0000 C   0  0  1  0  0  0  0  0  0  0  0  0
   -0.4457    1.6724    0.0000 C   0  0  1  0  0  0  0  0  0  0  0  0
    0.8437    1.3269    0.0000 C   0  0  0  0  0  0  0  0  0  0  0  0
    0.3245    1.9680    0.0000 C   0  0  2  0  0  0  0  0  0  0  0  0
    0.3943    0.6350    0.0000 C   0  0  0  0  0  0  0  0  0  0  0  0
    1.4350    2.8673    0.0000 C   0  0  0  0  0  0  0  0  0  0  0  0
    0.6201    2.7382    0.0000 C   0  0  1  0  0  0  0  0  0  0  0  0
    2.5910    3.7072    0.0000 C   0  0  0  0  0  0  0  0  0  0  0  0
    1.7705    3.6210    0.0000 C   0  0  0  0  0  0  0  0  0  0  0  0
   -1.1827    1.2967    0.0000 H   0  0  0  0  0  0  0  0  0  0  0  0
   -0.4457    0.0223    0.0000 H   0  0  0  0  0  0  0  0  0  0  0  0
    1.1449    1.8818    0.0000 H   0  0  0  0  0  0  0  0  0  0  0  0
   -0.6081   -0.1783    0.0000 H   0  0  0  0  0  0  0  0  0  0  0  0
   -0.4025    2.4962    0.0000 C   0  0  0  0  0  0  0  0  0  0  0  0
    0.0681    3.3513    0.0000 C   0  0  0  0  0  0  0  0  0  0  0  0
   -4.8027   -0.6451    0.0000 O   0  0  0  0  0  0  0  0  0  0  0  0
    3.0035    4.4217    0.0000 C   0  0  0  0  0  0  0  0  0  0  0  0
    3.3780    5.1568    0.0000 O   0  0  0  0  0  0  0  0  0  0  0  0
    2.2333    4.7173    0.0000 C   0  0  0  0  0  0  0  0  0  0  0  0
    3.7572    4.0861    0.0000 C   0  0  0  0  0  0  0  0  0  0  0  0
   -2.5891    1.2598    0.0000 C   0  0  0  0  0  0  0  0  0  0  0  0
  1  2  1  0  0  0  0
  2  3  1  0  0  0  0
  3  4  1  0  0  0  0
  4  5  1  0  0  0  0
  5  6  1  0  0  0  0
  1  6  1  0  0  0  0
  8  9  1  0  0  0  0
  9 10  1  0  0  0  0
  7 10  1  0  0  0  0
  5  8  2  0  0  0  0
  7  6  1  0  0  0  0
 11 12  1  0  0  0  0
 13 14  1  0  0  0  0
 11 14  1  0  0  0  0
 12  7  1  0  0  0  0
 10 13  1  0  0  0  0
 15 16  1  0  0  0  0
 15 17  1  0  0  0  0
 16 14  1  0  0  0  0
 13 17  1  0  0  0  0
 18 19  1  0  0  0  0
 19 16  1  0  0  0  0
 20 21  1  0  0  0  0
 21 18  1  0  0  0  0
  7 22  1  6  0  0  0
 13 23  1  6  0  0  0
 16 24  1  6  0  0  0
 10 25  1  1  0  0  0
 14 26  1  1  0  0  0
 19 27  1  6  0  0  0
  3 28  1  1  0  0  0
 20 29  1  0  0  0  0
 29 30  1  0  0  0  0
 29 31  1  0  0  0  0
 29 32  1  0  0  0  0
  6 33  1  1  0  0  0
M  END
