


 26 26  0  0000  0  0  0  0  0999 V2000
    3.6869   -4.5697    0.0000 Cl  0  0  0  0  0  0  0  0  0  0  0
   10.7102   -5.3746    0.0000 O   0  0  0  0  0  0  0  0  0  0  0
    3.6869   -7.8023    0.0000 N   0  0  0  0  0  0  0  0  0  0  0
    6.4911   -7.8023    0.0000 N   0  0  0  0  0  0  0  0  0  0  0
    6.4911   -4.5697    0.0000 N   0  0  0  0  0  0  0  0  0  0  0
    9.2952   -7.8023    0.0000 N   0  0  0  0  0  0  0  0  0  0  0
    9.2952   -2.9469    0.0000 N   0  0  0  0  0  0  0  0  0  0  0
   12.1123   -2.9469    0.0000 N   0  0  0  0  0  0  0  0  0  0  0
   10.7102   -0.5063    0.0000 N   0  0  0  0  0  0  0  0  0  0  0
    3.6869   -9.4250    0.0000 C   0  0  0  0  0  0  0  0  0  0  0
    2.2719   -6.9974    0.0000 C   0  0  0  0  0  0  0  0  0  0  0
    2.2719  -10.2429    0.0000 C   0  0  0  0  0  0  0  0  0  0  0
    5.0890  -10.2429    0.0000 C   0  0  0  0  0  0  0  0  0  0  0
    5.0890   -6.9974    0.0000 C   0  0  0  0  0  0  0  0  0  0  0
    0.8698   -7.8023    0.0000 C   0  0  0  0  0  0  0  0  0  0  0
    5.0890   -5.3746    0.0000 C   0  0  0  0  0  0  0  0  0  0  0
    7.8931   -6.9974    0.0000 C   0  0  0  0  0  0  0  0  0  0  0
    7.8931   -5.3746    0.0000 C   0  0  0  0  0  0  0  0  0  0  0
    9.2952   -4.5697    0.0000 C   0  0  0  0  0  0  0  0  0  0  0
   10.7102   -2.1291    0.0000 C   0  0  0  0  0  0  0  0  0  0  0
    9.2952   -8.8149    0.0000 H   0  0  0  0  0  0  0  0  0  0  0
   10.1780   -7.3089    0.0000 H   0  0  0  0  0  0  0  0  0  0  0
   12.1123   -3.9466    0.0000 H   0  0  0  0  0  0  0  0  0  0  0
   12.9821   -2.4406    0.0000 H   0  0  0  0  0  0  0  0  0  0  0
    9.8404    0.0000    0.0000 H   0  0  0  0  0  0  0  0  0  0  0
   11.5800    0.0000    0.0000 H   0  0  0  0  0  0  0  0  0  0  0
  1 16  1  0
  2 19  2  0
  3 10  1  0
  3 11  1  0
  3 14  1  0
  4 14  2  0
  4 17  1  0
  5 16  2  0
  5 18  1  0
  6 17  1  0
  6 21  1  0
  6 22  1  0
  7 19  1  0
  7 20  2  0
  8 20  1  0
  8 23  1  0
  8 24  1  0
  9 20  1  0
  9 25  1  0
  9 26  1  0
 10 12  1  0
 10 13  1  0
 11 15  1  0
 14 16  1  0
 17 18  2  0
 18 19  1  0
M  END

> <StdInChI>
InChI=1S/C11H18ClN7O/c1-4-19(5(2)3)9-7(12)16-6(8(13)17-9)10(20)18-11(14)15/h5H,4H2,1-3H3,(H2,13,17)(H4,14,15,18,20)

> <StdInChIKey>
QDERNBXNXJCIQK-UHFFFAOYSA-N

> <AuxInfo>
1/1/N:15,12,13,11,10,18,16,17,14,19,20,1,6,8,9,5,4,7,3,2/E:(2,3)(14,15)/rA:38nClONNNNNNNCCCCCCCCCCCHHHHHHHHHHHHHHHHHH/rB:;;;;;;;;s3;s3;s10;s10;s3d4;s11;s1d5s14;s4s6;s5d17;d2s7s18;d7s8s9;s10;s11;s11;s12;s12;s12;s13;s13;s13;s15;s15;s15;s6;s6;s8;s8;s9;s9;/rC:3.6869,-4.5697,0;10.7102,-5.3746,0;3.6869,-7.8023,0;6.4911,-7.8023,0;6.4911,-4.5697,0;9.2952,-7.8023,0;9.2952,-2.9469,0;12.1123,-2.9469,0;10.7102,-.5063,0;3.6869,-9.425,0;2.2719,-6.9974,0;2.2719,-10.2429,0;5.089,-10.2429,0;5.089,-6.9974,0;.8698,-7.8023,0;5.089,-5.3746,0;7.8931,-6.9974,0;7.8931,-5.3746,0;9.2952,-4.5697,0;10.7102,-2.1291,0;4.5567,-8.9317,0;2.921,-6.2314,0;1.6357,-6.2314,0;1.4021,-10.7492,0;2.7782,-11.1127,0;1.7785,-9.3731,0;4.5827,-11.1127,0;5.9588,-10.7492,0;5.5953,-9.3731,0;1.3761,-8.685,0;0,-8.3086,0;.3635,-6.9324,0;9.2952,-8.8149,0;10.178,-7.3089,0;12.1123,-3.9466,0;12.9821,-2.4406,0;9.8404,0,0;11.58,0,0;

> <Formula>
C11 H18 Cl N7 O

> <Mw>
299.7599

> <SMILES>
ClC1C(=NC(=C(C(/N=C(/N([H])[H])\N([H])[H])=O)N=1)N([H])[H])N(C([H])([H])C([H])([H])[H])C([H])(C([H])([H])[H])C([H])([H])[H]

> <CSID>
1729

$$$$
