


 20 22  0  0001  0  0  0  0  0999 V2000
    6.7485    0.4010    0.0000 O   0  0  0  0  0  0  0  0  0  0  0
    6.7523    2.5766    0.0000 O   0  0  0  0  0  0  0  0  0  0  0
    4.6844    3.2525    0.0000 O   0  0  0  0  0  0  0  0  0  0  0
    4.6783   -0.2677    0.0000 N   0  0  0  0  0  0  0  0  0  0  0
    4.6783   -1.8771    0.0000 N   0  0  0  0  0  0  0  0  0  0  0
    2.8660   -0.0724    0.0000 N   0  0  0  0  0  0  0  0  0  0  0
    2.0000   -1.5724    0.0000 N   0  0  0  0  0  0  0  0  0  0  0
    2.8660   -3.0724    0.0000 N   0  0  0  0  0  0  0  0  0  0  0
    4.9889    0.6828    0.0000 C   0  0  0  0  0  0  0  0  0  0  0
    5.9405    0.9902    0.0000 C   0  0  0  0  0  0  0  0  0  0  0
    4.4025    1.4929    0.0000 C   0  0  0  0  0  0  0  0  0  0  0
    5.9423    1.9902    0.0000 C   0  0  0  0  0  0  0  0  0  0  0
    4.9917    2.3009    0.0000 C   0  0  0  0  0  0  0  0  0  0  0
    3.7321   -0.5724    0.0000 C   0  0  0  0  0  0  0  0  0  0  0
    5.2619   -1.0724    0.0000 C   0  0  0  0  0  0  0  0  0  0  0
    3.7321   -1.5724    0.0000 C   0  0  0  0  0  0  0  0  0  0  0
    2.8660   -2.0724    0.0000 C   0  0  0  0  0  0  0  0  0  0  0
    2.0000   -0.5724    0.0000 C   0  0  0  0  0  0  0  0  0  0  0
    2.3291   -3.3824    0.0000 H   0  0  0  0  0  0  0  0  0  0  0
    3.4030   -3.3824    0.0000 H   0  0  0  0  0  0  0  0  0  0  0
 10  1  1  1
 12  2  1  1
 13  3  1  6
  9  4  1  6
  4 14  1  0
  4 15  1  0
  5 15  2  0
  5 16  1  0
  6 14  2  0
  6 18  1  0
  7 17  1  0
  7 18  2  0
  8 17  1  0
  8 19  1  0
  8 20  1  0
  9 10  1  0
  9 11  1  0
 10 12  1  0
 11 13  1  0
 12 13  1  0
 14 16  1  0
 16 17  2  0
M  END

> <PUBCHEM_BONDANNOTATIONS>
10  1  5
14  16  8
16  17  8
12  2  5
13  3  6
4  14  8
4  15  8
9  4  6
5  15  8
5  16  8
6  14  8
6  18  8
7  17  8
7  18  8

> <StdInChI>
InChI=1S/C10H13N5O3/c11-9-6-10(13-2-12-9)15(3-14-6)4-1-5(16)8(18)7(4)17/h2-5,7-8,16-18H,1H2,(H2,11,12,13)/t4-,5+,7+,8-/m1/s1

> <StdInChIKey>
VFKHECGAEJNAMV-HETMPLHPSA-N

> <AuxInfo>
1/1/N:11,18,15,9,13,16,10,12,17,14,8,7,6,5,4,3,1,2/it:im/rA:31cOOONNNNNCCCCCCCCCCHHHHHHHHHHHHH/rB:;;;;;;;n4;p1s9;s9;p2s10;n3s11s12;s4d6;s4d5;s5s14;s7s8d16;s6d7;s9;s10;s11;s11;s12;s13;s1;s15;s2;s3;s18;s8;s8;/rC:6.7485,.401,0;6.7523,2.5766,0;4.6844,3.2525,0;4.6783,-.2677,0;4.6783,-1.8771,0;2.866,-.0724,0;2,-1.5724,0;2.866,-3.0724,0;4.9889,.6828,0;5.9405,.9902,0;4.4025,1.4929,0;5.9423,1.9902,0;4.9917,2.3009,0;3.7321,-.5724,0;5.2619,-1.0724,0;3.7321,-1.5724,0;2.866,-2.0724,0;2,-.5724,0;5.4266,.2437,0;6.4934,1.2707,0;3.9425,1.9085,0;3.9411,1.0788,0;5.8463,2.6027,0;5.4309,2.7385,0;7.3154,.6522,0;5.8819,-1.0724,0;6.6885,3.1933,0;4.0781,3.3824,0;1.4631,-.2624,0;2.3291,-3.3824,0;3.403,-3.3824,0;

> <Formula>
C10 H13 N5 O3

> <Mw>
251.2419

> <SMILES>
O([H])[C@]1([H])[C@@]([H])([C@]([H])(C([H])([H])[C@@]1([H])N1C([H])=NC2=C(N([H])[H])N=C([H])N=C12)O[H])O[H]

> <CSID>
112548

$$$$
