
  Mrv1816 07121813092D          

 39 43  0  0  0  0            999 V2000
   -3.6830   -0.2134    0.0000 C   0  0  0  0  0  0  0  0  0  0  0  0
   -4.3505   -0.6983    0.0000 C   0  0  0  0  0  0  0  0  0  0  0  0
   -4.0955   -1.4829    0.0000 C   0  0  0  0  0  0  0  0  0  0  0  0
   -3.2705   -1.4829    0.0000 N   0  0  0  0  0  0  0  0  0  0  0  0
   -3.0156   -0.6983    0.0000 C   0  0  0  0  0  0  0  0  0  0  0  0
   -2.2310   -0.4434    0.0000 C   0  0  0  0  0  0  0  0  0  0  0  0
   -1.7817   -1.1353    0.0000 O   0  0  0  0  0  0  0  0  0  0  0  0
   -2.1019    0.3714    0.0000 C   0  0  2  0  0  0  0  0  0  0  0  0
   -1.3050    0.5850    0.0000 C   0  0  1  0  0  0  0  0  0  0  0  0
   -2.6853    0.9548    0.0000 C   0  0  0  0  0  0  0  0  0  0  0  0
   -1.3050   -0.2400    0.0000 H   0  0  0  0  0  0  0  0  0  0  0  0
   -0.5348    0.2893    0.0000 O   0  0  0  0  0  0  0  0  0  0  0  0
   -1.3050    1.4100    0.0000 C   0  0  1  0  0  0  0  0  0  0  0  0
   -0.6131    1.8593    0.0000 C   0  0  0  0  0  0  0  0  0  0  0  0
    0.1405    1.5237    0.0000 C   0  0  2  0  0  0  0  0  0  0  0  0
    0.1837    0.6999    0.0000 C   0  0  1  0  0  0  0  0  0  0  0  0
   -1.9725    1.8949    0.0000 C   0  0  0  0  0  0  0  0  0  0  0  0
    0.1837   -0.1251    0.0000 O   0  0  0  0  0  0  0  0  0  0  0  0
    0.8756    1.8983    0.0000 C   0  0  0  0  0  0  0  0  0  0  0  0
    0.8756    1.1492    0.0000 C   0  0  0  0  0  0  0  0  0  0  0  0
    1.6107    0.7746    0.0000 C   0  0  0  0  0  0  0  0  0  0  0  0
    1.6539   -0.0492    0.0000 C   0  0  2  0  0  0  0  0  0  0  0  0
    0.9864   -0.5341    0.0000 C   0  0  1  0  0  0  0  0  0  0  0  0
    2.3684   -0.4617    0.0000 C   0  0  0  0  0  0  0  0  0  0  0  0
    1.0727   -1.3546    0.0000 C   0  0  0  0  0  0  0  0  0  0  0  0
    1.7138   -1.8738    0.0000 C   0  0  0  0  0  0  0  0  0  0  0  0
    1.7138   -2.6988    0.0000 N   0  0  0  0  0  0  0  0  0  0  0  0
    2.4984   -1.6189    0.0000 O   0  0  0  0  0  0  0  0  0  0  0  0
    3.0505   -2.2320    0.0000 C   0  0  0  0  0  0  0  0  0  0  0  0
    2.6012   -2.9239    0.0000 C   0  0  0  0  0  0  0  0  0  0  0  0
    3.8755   -2.2320    0.0000 C   0  0  0  0  0  0  0  0  0  0  0  0
    3.0505   -3.6609    0.0000 C   0  0  0  0  0  0  0  0  0  0  0  0
    3.8755   -3.6609    0.0000 C   0  0  0  0  0  0  0  0  0  0  0  0
    4.2880   -2.9464    0.0000 C   0  0  0  0  0  0  0  0  0  0  0  0
    2.2803   -3.9566    0.0000 C   0  0  0  0  0  0  0  0  0  0  0  0
    1.4733   -3.7851    0.0000 O   0  0  0  0  0  0  0  0  0  0  0  0
    2.3234   -4.7805    0.0000 O   0  0  0  0  0  0  0  0  0  0  0  0
    4.5899   -4.0734    0.0000 N   0  0  0  0  0  0  0  0  0  0  0  0
    4.5468   -4.8973    0.0000 C   0  0  0  0  0  0  0  0  0  0  0  0
  1  2  1  0  0  0  0
  2  3  2  0  0  0  0
  3  4  1  0  0  0  0
  4  5  1  0  0  0  0
  1  5  2  0  0  0  0
  5  6  1  0  0  0  0
  6  7  2  0  0  0  0
  6  8  1  0  0  0  0
  8  9  1  0  0  0  0
  8 10  1  1  0  0  0
  9 11  1  1  0  0  0
  9 12  1  0  0  0  0
  9 13  1  0  0  0  0
 13 14  1  0  0  0  0
 14 15  1  0  0  0  0
 15 16  1  0  0  0  0
 16 12  1  0  0  0  0
 13 17  1  6  0  0  0
 16 18  1  1  0  0  0
 15 19  1  1  0  0  0
 16 20  1  0  0  0  0
 20 21  1  0  0  0  0
 21 22  1  0  0  0  0
 22 23  1  0  0  0  0
 23 18  1  0  0  0  0
 22 24  1  1  0  0  0
 23 25  1  1  0  0  0
 25 26  1  0  0  0  0
 26 27  2  0  0  0  0
 26 28  1  0  0  0  0
 28 29  1  0  0  0  0
 30 27  1  0  0  0  0
 32 33  2  0  0  0  0
 33 34  1  0  0  0  0
 31 34  2  0  0  0  0
 31 29  1  0  0  0  0
 30 32  1  0  0  0  0
 29 30  2  0  0  0  0
 32 35  1  0  0  0  0
 35 36  2  0  0  0  0
 35 37  1  0  0  0  0
 33 38  1  0  0  0  0
 38 39  1  0  0  0  0
M  END
