


 37 40  0  0  0  0  0  0  0  0999 V2000
   -3.0133    0.3116    0.0000 C   0  0  0  0  0  0  0  0  0  0  0  0
   -3.7278   -0.1008    0.0000 C   0  0  0  0  0  0  0  0  0  0  0  0
   -3.7278   -0.9259    0.0000 C   0  0  0  0  0  0  0  0  0  0  0  0
   -3.0133   -1.3383    0.0000 C   0  0  0  0  0  0  0  0  0  0  0  0
   -2.2988   -0.9259    0.0000 C   0  0  0  0  0  0  0  0  0  0  0  0
   -2.2988   -0.1008    0.0000 N   0  0  0  0  0  0  0  0  0  0  0  0
   -4.4423   -1.3385    0.0000 C   0  0  0  0  0  0  0  0  0  0  0  0
   -5.1568   -0.9260    0.0000 O   0  0  0  0  0  0  0  0  0  0  0  0
   -4.4422   -2.1635    0.0000 O   0  0  0  0  0  0  0  0  0  0  0  0
   -1.5844    0.3116    0.0000 C   0  0  0  0  0  0  0  0  0  0  0  0
   -0.8699   -0.1008    0.0000 C   0  0  0  0  0  0  0  0  0  0  0  0
   -0.1554    0.3116    0.0000 C   0  0  0  0  0  0  0  0  0  0  0  0
   -0.1553    1.1366    0.0000 C   0  0  0  0  0  0  0  0  0  0  0  0
   -0.8698    1.5491    0.0000 C   0  0  0  0  0  0  0  0  0  0  0  0
   -1.5844    1.1366    0.0000 C   0  0  0  0  0  0  0  0  0  0  0  0
   -2.2988    1.5491    0.0000 F   0  0  0  0  0  0  0  0  0  0  0  0
    0.5591   -0.1009    0.0000 N   0  0  0  0  0  0  0  0  0  0  0  0
    1.2735    0.3115    0.0000 C   0  0  0  0  0  0  0  0  0  0  0  0
    1.2736    1.1365    0.0000 C   0  0  0  0  0  0  0  0  0  0  0  0
    0.5591    1.5491    0.0000 C   0  0  0  0  0  0  0  0  0  0  0  0
    0.5590   -0.9259    0.0000 C   0  0  0  0  0  0  0  0  0  0  0  0
    1.2735   -1.3384    0.0000 C   0  0  0  0  0  0  0  0  0  0  0  0
    0.5591    2.3741    0.0000 O   0  0  0  0  0  0  0  0  0  0  0  0
    2.0982    2.2991    0.0000 O   0  0  0  0  0  0  0  0  0  0  0  0
    2.0982    1.4741    0.0000 C   0  0  0  0  0  0  0  0  0  0  0  0
    2.7832    1.0143    0.0000 N   0  0  0  0  0  0  0  0  0  0  0  0
    3.1187    1.7680    0.0000 C   0  0  0  0  0  0  0  0  0  0  0  0
    3.7318    1.2159    0.0000 C   0  0  0  0  0  0  0  0  0  0  0  0
    3.5603    0.4090    0.0000 C   0  0  0  0  0  0  0  0  0  0  0  0
    4.1735   -0.1430    0.0000 C   0  0  0  0  0  0  0  0  0  0  0  0
    4.9581    0.1118    0.0000 C   0  0  0  0  0  0  0  0  0  0  0  0
    5.1296    0.9188    0.0000 C   0  0  0  0  0  0  0  0  0  0  0  0
    4.5165    1.4709    0.0000 C   0  0  0  0  0  0  0  0  0  0  0  0
    4.6880    2.2778    0.0000 Cl  0  0  0  0  0  0  0  0  0  0  0  0
    5.5711   -0.4402    0.0000 Cl  0  0  0  0  0  0  0  0  0  0  0  0
   -5.0705   -0.1055    0.0000 C   0  0  0  0  0  0  0  0  0  0  0  0
   -5.7380    0.3793    0.0000 C   0  0  0  0  0  0  0  0  0  0  0  0
  1  2  1  0  0  0  0
  2  3  1  0  0  0  0
  3  4  1  0  0  0  0
  4  5  1  0  0  0  0
  1  6  1  0  0  0  0
  5  6  1  0  0  0  0
  3  7  1  0  0  0  0
  7  9  2  0  0  0  0
 10 11  2  0  0  0  0
 11 12  1  0  0  0  0
 12 13  2  0  0  0  0
 13 14  1  0  0  0  0
 14 15  2  0  0  0  0
 15 10  1  0  0  0  0
  6 10  1  0  0  0  0
 15 16  1  0  0  0  0
 19 20  1  0  0  0  0
 13 20  1  0  0  0  0
 17 18  1  0  0  0  0
 12 17  1  0  0  0  0
 17 21  1  0  0  0  0
 21 22  1  0  0  0  0
 19 18  2  0  0  0  0
 20 23  2  0  0  0  0
 24 25  2  0  0  0  0
 25 19  1  0  0  0  0
 25 26  1  0  0  0  0
 26 27  1  0  0  0  0
 27 28  1  0  0  0  0
 29 30  1  0  0  0  0
 30 31  2  0  0  0  0
 31 32  1  0  0  0  0
 32 33  2  0  0  0  0
 28 29  2  0  0  0  0
 33 28  1  0  0  0  0
 31 35  1  0  0  0  0
 33 34  1  0  0  0  0
  7  8  1  0  0  0  0
  8 36  1  0  0  0  0
 36 37  1  0  0  0  0
M  END
