
  Mrv1816 07141818532D          

 19 21  0  0  0  0            999 V2000
   -3.0359    0.1447    0.0000 C   0  0  0  0  0  0  0  0  0  0  0  0
   -3.0359   -0.6803    0.0000 N   0  0  0  0  0  0  0  0  0  0  0  0
   -2.3214   -1.0929    0.0000 C   0  0  0  0  0  0  0  0  0  0  0  0
   -1.6069   -0.6804    0.0000 C   0  0  0  0  0  0  0  0  0  0  0  0
   -1.6070    0.1446    0.0000 C   0  0  0  0  0  0  0  0  0  0  0  0
   -2.3214    0.5571    0.0000 C   0  0  0  0  0  0  0  0  0  0  0  0
   -2.3646   -1.9167    0.0000 N   0  0  0  0  0  0  0  0  0  0  0  0
   -0.8101    0.3582    0.0000 N   0  0  0  0  0  0  0  0  0  0  0  0
   -0.8799   -0.9748    0.0000 N   0  0  0  0  0  0  0  0  0  0  0  0
   -0.3608   -0.3337    0.0000 C   0  0  0  0  0  0  0  0  0  0  0  0
   -0.4306    1.1171    0.0000 C   0  0  1  0  0  0  0  0  0  0  0  0
   -0.0181    2.3866    0.0000 C   0  0  1  0  0  0  0  0  0  0  0  0
   -0.6855    1.9017    0.0000 C   0  0  1  0  0  0  0  0  0  0  0  0
    0.3944    1.1171    0.0000 C   0  0  0  0  0  0  0  0  0  0  0  0
    0.6493    1.9017    0.0000 C   0  0  2  0  0  0  0  0  0  0  0  0
   -1.4702    2.1566    0.0000 O   0  0  0  0  0  0  0  0  0  0  0  0
   -0.0181    3.2116    0.0000 O   0  0  0  0  0  0  0  0  0  0  0  0
    1.4339    2.1566    0.0000 C   0  0  0  0  0  0  0  0  0  0  0  0
    2.1014    1.6717    0.0000 O   0  0  0  0  0  0  0  0  0  0  0  0
  1  2  1  0  0  0  0
  2  3  2  0  0  0  0
  3  4  1  0  0  0  0
  4  5  2  0  0  0  0
  5  6  1  0  0  0  0
  1  6  2  0  0  0  0
  3  7  1  0  0  0  0
  9 10  2  0  0  0  0
  8 10  1  0  0  0  0
  8  5  1  0  0  0  0
  4  9  1  0  0  0  0
 11  8  1  1  0  0  0
 12 13  1  0  0  0  0
 14 15  1  0  0  0  0
 12 15  1  0  0  0  0
 13 11  1  0  0  0  0
 11 14  1  0  0  0  0
 13 16  1  6  0  0  0
 12 17  1  6  0  0  0
 15 18  1  1  0  0  0
 18 19  1  0  0  0  0
M  END
