


 35 40  0  0001  0  0  0  0  0999 V2000
    3.4723   -3.8247    0.0000 C   0  0  0  0  0  0  0  0  0  0  0
    3.4723   -2.6472    0.0000 C   0  0  0  0  0  0  0  0  0  0  0
    2.3464   -2.2776    0.0000 C   0  0  0  0  0  0  0  0  0  0  0
    0.4813   -3.1113    0.0000 C   0  0  0  0  0  0  0  0  0  0  0
    0.0000   -2.0370    0.0000 C   0  0  0  0  0  0  0  0  0  0  0
    1.8651   -1.2033    0.0000 C   0  0  0  0  0  0  0  0  0  0  0
    2.5612   -0.2492    0.0000 O   0  0  0  0  0  0  0  0  0  0  0
    0.6962   -1.0829    0.0000 C   0  0  0  0  0  0  0  0  0  0  0
    0.2149    0.0000    0.0000 C   0  0  0  0  0  0  0  0  0  0  0
    4.5982   -4.1943    0.0000 C   0  0  0  0  0  0  0  0  0  0  0
    2.9136   -5.1397    0.0000 O   0  0  0  0  0  0  0  0  0  0  0
    3.4723   -5.0108    0.0000 O   0  0  0  0  0  0  0  0  0  0  0
    3.4723   -1.4611    0.0000 O   0  0  0  0  0  0  0  0  0  0  0
    4.9592   -5.3116    0.0000 O   0  0  0  0  0  0  0  0  0  0  0
    6.9016   -4.6842    0.0000 O   0  0  0  0  0  0  0  0  0  0  0
    6.1109   -5.5608    0.0000 C   0  0  0  0  0  0  0  0  0  0  0
    6.4805   -6.6867    0.0000 C   0  0  0  0  0  0  0  0  0  0  0
    5.7843   -7.6408    0.0000 N   0  0  0  0  0  0  0  0  0  0  0
    7.6064   -7.0477    0.0000 C   0  0  0  0  0  0  0  0  0  0  0
    6.4805   -8.5948    0.0000 C   0  0  0  0  0  0  0  0  0  0  0
    7.6064   -8.2338    0.0000 C   0  0  0  0  0  0  0  0  0  0  0
    4.5982   -2.2776    0.0000 C   0  0  0  0  0  0  0  0  0  0  0
    4.5982   -1.1001    0.0000 C   0  0  0  0  0  0  0  0  0  0  0
    1.6588   -3.2402    0.0000 C   0  0  0  0  0  0  0  0  0  0  0
    1.0658   -2.2175    0.0000 O   0  0  0  0  0  0  0  0  0  0  0
    2.3464   -6.1109    0.0000 C   0  0  0  0  0  0  0  0  0  0  0
    7.3314   -3.2402    0.0000 C   0  0  0  0  0  0  0  0  0  0  0
    6.3086   -2.6472    0.0000 C   0  0  0  0  0  0  0  0  0  0  0
    6.3086   -1.4697    0.0000 C   0  0  0  0  0  0  0  0  0  0  0
    5.2858   -3.2402    0.0000 C   0  0  0  0  0  0  0  0  0  0  0
    6.3086   -3.8247    0.0000 O   0  0  0  0  0  0  0  0  0  0  0
    2.3464   -4.1943    0.0000 C   0  0  0  0  0  0  0  0  0  0  0
    1.1689   -4.1943    0.0000 C   0  0  0  0  0  0  0  0  0  0  0
    4.0224   -6.1109    0.0000 C   0  0  0  0  0  0  0  0  0  0  0
    4.6154   -7.1337    0.0000 O   0  0  0  0  0  0  0  0  0  0  0
  1 10  1  0
  1 32  1  0
  1 12  1  6
  1  2  1  0
  2 22  1  0
  2  3  1  0
  2 13  1  6
  3  6  1  0
  3 24  1  0
  3 11  1  1
  4 24  1  0
  4  5  1  0
  5  8  1  0
  6  8  1  0
  6  7  1  1
  8  9  1  6
 10 30  1  0
 10 14  1  1
 34 11  1  1
 14 16  1  0
 15 16  2  0
 16 17  1  0
 17 18  1  0
 17 19  2  0
 18 20  1  0
 19 21  1  0
 20 21  2  0
 22 30  1  0
 22 23  1  6
 22 34  1  0
 24 32  1  0
 24 25  1  6
 26 34  1  0
 26 32  1  0
 27 28  1  0
 28 30  1  0
 28 29  1  0
 30 31  1  6
 32 33  1  6
 34 35  1  0
M  END

> <StdInChI>
InChI=1S/C25H35NO9/c1-12(2)22(31)17(34-16(28)14-7-6-10-26-14)23(32)18(4)11-21(30)19(22,5)25(23,33)24(35-21)15(27)13(3)8-9-20(18,24)29/h6-7,10,12-13,15,17,26-27,29-33H,8-9,11H2,1-5H3/t13-,15+,17+,18-,19+,20-,21-,22+,23+,24+,25+/m0/s1

> <StdInChIKey>
JJSYXNQGLHBRRK-SFEDZAPPSA-N

> <AuxInfo>
1/0/N:27,29,9,33,23,21,19,5,4,20,26,28,8,17,6,16,10,32,22,24,34,30,1,3,2,18,7,15,25,35,31,12,13,14,11/E:(1,2)/it:im/rA:35cCCCCCCOCCCOOOOOCCNCCCCCCOCCCCCOCCCO/rB:s1;s2;;s4;s3;P6;s5s6;N8;s1;P3;N1;N2;P10;;s14d15;s16;s17;d17;s18;s19d20;s2;N22;s3s4;N24;;;s27;s28;s10s22s28;N30;s1s24s26;N32;p11s22s26;s34;/rC:3.4723,-3.8247,0;3.4723,-2.6472,0;2.3464,-2.2776,0;.4813,-3.1113,0;0,-2.037,0;1.8651,-1.2033,0;2.5612,-.2492,0;.6962,-1.0829,0;.2149,0,0;4.5982,-4.1943,0;2.9136,-5.1397,0;3.4723,-5.0108,0;3.4723,-1.4611,0;4.9592,-5.3116,0;6.9016,-4.6842,0;6.1109,-5.5608,0;6.4805,-6.6867,0;5.7843,-7.6408,0;7.6064,-7.0477,0;6.4805,-8.5948,0;7.6064,-8.2338,0;4.5982,-2.2776,0;4.5982,-1.1001,0;1.6588,-3.2402,0;1.0658,-2.2175,0;2.3464,-6.1109,0;7.3314,-3.2402,0;6.3086,-2.6472,0;6.3086,-1.4697,0;5.2858,-3.2402,0;6.3086,-3.8247,0;2.3464,-4.1943,0;1.1689,-4.1943,0;4.0224,-6.1109,0;4.6154,-7.1337,0;

> <Formula>
C25 H35 N O9

> <Mw>
493.5467

> <SMILES>
[C@]12([C@@]3(O)[C@]45O[C@@](O)(C[C@@]1(C)[C@@]4(O)CC[C@H](C)[C@H]5O)[C@]3(C)[C@@](O)(C(C)C)[C@H]2OC(C1=CC=CN1)=O)O

> <CSID>
16736002

$$$$
