
  Mrv1816 07131818562D          

 36 39  0  0  1  0            999 V2000
   13.7936   -4.8277    0.0000 F   0  0  0  0  0  0  0  0  0  0  0  0
   10.3590   -2.1794    0.0000 O   0  0  0  0  0  0  0  0  0  0  0  0
    8.9520   -2.4277    0.0000 O   0  0  0  0  0  0  0  0  0  0  0  0
    8.6624   -0.8138    0.0000 O   0  0  0  0  0  0  0  0  0  0  0  0
    8.4417   -3.6967    0.0000 N   0  0  0  0  0  0  0  0  0  0  0  0
    5.4899   -4.4553    0.0000 N   0  0  0  0  0  0  0  0  0  0  0  0
    5.4899   -5.7933    0.0000 N   0  0  0  0  0  0  0  0  0  0  0  0
   10.4969   -2.9932    0.0000 C   0  0  1  0  0  0  0  0  0  0  0  0
   11.2694   -2.7035    0.0000 C   0  0  2  0  0  0  0  0  0  0  0  0
   11.9038   -3.2415    0.0000 C   0  0  0  0  0  0  0  0  0  0  0  0
   11.7660   -4.0553    0.0000 C   0  0  0  0  0  0  0  0  0  0  0  0
   10.3590   -3.8071    0.0000 C   0  0  0  0  0  0  0  0  0  0  0  0
   11.4211   -1.9035    0.0000 C   0  0  0  0  0  0  0  0  0  0  0  0
    9.6831   -2.9932    0.0000 C   0  0  0  0  0  0  0  0  0  0  0  0
   10.9935   -4.3312    0.0000 C   0  0  0  0  0  0  0  0  0  0  0  0
   12.6763   -2.9518    0.0000 C   0  0  0  0  0  0  0  0  0  0  0  0
   12.3866   -4.5795    0.0000 C   0  0  0  0  0  0  0  0  0  0  0  0
   13.1591   -4.3036    0.0000 C   0  0  0  0  0  0  0  0  0  0  0  0
    9.5866   -1.9035    0.0000 C   0  0  0  0  0  0  0  0  0  0  0  0
   13.3108   -3.4898    0.0000 C   0  0  0  0  0  0  0  0  0  0  0  0
    9.2693   -3.6967    0.0000 C   0  0  0  0  0  0  0  0  0  0  0  0
   12.1935   -1.6138    0.0000 C   0  0  0  0  0  0  0  0  0  0  0  0
   10.7866   -1.3656    0.0000 C   0  0  0  0  0  0  0  0  0  0  0  0
    4.7036   -4.7036    0.0000 C   0  0  0  0  0  0  0  0  0  0  0  0
    4.7036   -5.5312    0.0000 C   0  0  0  0  0  0  0  0  0  0  0  0
    9.4348   -1.0897    0.0000 C   0  0  0  0  0  0  0  0  0  0  0  0
    5.9864   -5.1174    0.0000 C   0  0  0  0  0  0  0  0  0  0  0  0
    8.0417   -4.4140    0.0000 C   0  0  0  0  0  0  0  0  0  0  0  0
    4.0002   -4.2898    0.0000 C   0  0  0  0  0  0  0  0  0  0  0  0
    4.0002   -5.9450    0.0000 C   0  0  0  0  0  0  0  0  0  0  0  0
    6.8002   -5.1174    0.0000 C   0  0  0  0  0  0  0  0  0  0  0  0
    7.2140   -4.4140    0.0000 C   0  0  0  0  0  0  0  0  0  0  0  0
    3.2829   -4.7036    0.0000 C   0  0  0  0  0  0  0  0  0  0  0  0
    3.2829   -5.5312    0.0000 C   0  0  0  0  0  0  0  0  0  0  0  0
    8.0417   -2.9932    0.0000 C   0  0  0  0  0  0  0  0  0  0  0  0
    8.5245    0.0000    0.0000 C   0  0  0  0  0  0  0  0  0  0  0  0
  1 18  1  0  0  0  0
  2  8  1  0  0  0  0
  2 19  1  0  0  0  0
  3 19  2  0  0  0  0
  4 26  1  0  0  0  0
  4 36  1  0  0  0  0
  5 21  1  0  0  0  0
  5 28  1  0  0  0  0
  5 35  1  0  0  0  0
  6 24  1  0  0  0  0
  6 27  2  0  0  0  0
  7 25  1  0  0  0  0
  7 27  1  0  0  0  0
  8  9  1  0  0  0  0
  8 12  1  0  0  0  0
  8 14  1  6  0  0  0
  9 10  1  0  0  0  0
  9 13  1  1  0  0  0
 10 11  2  0  0  0  0
 10 16  1  0  0  0  0
 11 15  1  0  0  0  0
 11 17  1  0  0  0  0
 12 15  1  0  0  0  0
 13 22  1  0  0  0  0
 13 23  1  0  0  0  0
 14 21  1  0  0  0  0
 16 20  2  0  0  0  0
 17 18  2  0  0  0  0
 18 20  1  0  0  0  0
 19 26  1  0  0  0  0
 24 25  2  0  0  0  0
 24 29  1  0  0  0  0
 25 30  1  0  0  0  0
 27 31  1  0  0  0  0
 28 32  1  0  0  0  0
 29 33  2  0  0  0  0
 30 34  2  0  0  0  0
 31 32  1  0  0  0  0
 33 34  1  0  0  0  0
M  END
