
  Mrv1816 07111810452D          

 19 20  0  0  0  0            999 V2000
   -0.5804    0.1884    0.0000 O   0  0  0  0  0  0  0  0  0  0  0  0
   -1.2478   -0.2965    0.0000 C   0  0  1  0  0  0  0  0  0  0  0  0
   -0.9929   -1.0811    0.0000 C   0  0  0  0  0  0  0  0  0  0  0  0
   -0.1679   -1.0811    0.0000 C   0  0  0  0  0  0  0  0  0  0  0  0
    0.0871   -0.2965    0.0000 C   0  0  2  0  0  0  0  0  0  0  0  0
   -1.9623    0.1160    0.0000 C   0  0  0  0  0  0  0  0  0  0  0  0
    0.4616    0.4385    0.0000 N   0  0  0  0  0  0  0  0  0  0  0  0
   -2.6542   -0.3334    0.0000 O   0  0  0  0  0  0  0  0  0  0  0  0
    0.8741    1.7080    0.0000 N   0  0  0  0  0  0  0  0  0  0  0  0
    0.2067    1.2231    0.0000 C   0  0  0  0  0  0  0  0  0  0  0  0
    1.2866    0.4385    0.0000 C   0  0  0  0  0  0  0  0  0  0  0  0
    1.5415    1.2231    0.0000 C   0  0  0  0  0  0  0  0  0  0  0  0
   -1.7073   -1.4936    0.0000 O   0  0  0  0  0  0  0  0  0  0  0  0
    0.3842   -1.6942    0.0000 O   0  0  0  0  0  0  0  0  0  0  0  0
    2.2090    1.7080    0.0000 C   0  0  0  0  0  0  0  0  0  0  0  0
    1.9133    2.4782    0.0000 O   0  0  0  0  0  0  0  0  0  0  0  0
    3.0295    1.6218    0.0000 N   0  0  0  0  0  0  0  0  0  0  0  0
    1.6612   -0.2965    0.0000 C   0  0  0  0  0  0  0  0  0  0  0  0
    2.4850   -0.2534    0.0000 C   0  0  0  0  0  0  0  0  0  0  0  0
  1  2  1  0  0  0  0
  3  4  1  1  0  0  0
  1  5  1  0  0  0  0
  2  6  1  0  0  0  0
  5  7  1  0  0  0  0
  6  8  1  0  0  0  0
  9 10  2  0  0  0  0
 11 12  2  0  0  0  0
  9 12  1  0  0  0  0
 10  7  1  0  0  0  0
  7 11  1  0  0  0  0
  3 13  1  0  0  0  0
  4 14  1  0  0  0  0
  2  3  1  1  0  0  0
  5  4  1  1  0  0  0
 12 15  1  0  0  0  0
 15 16  2  0  0  0  0
 15 17  1  0  0  0  0
 11 18  1  0  0  0  0
 18 19  3  0  0  0  0
M  END
