
  Mrv1816 07101822122D          

 28 30  0  0  0  0            999 V2000
   -2.4107    2.8563    0.0000 C   0  0  0  0  0  0  0  0  0  0  0  0
   -3.1252    2.4438    0.0000 C   0  0  0  0  0  0  0  0  0  0  0  0
   -3.1252    1.6187    0.0000 C   0  0  0  0  0  0  0  0  0  0  0  0
   -2.4107    1.2062    0.0000 C   0  0  0  0  0  0  0  0  0  0  0  0
   -1.6962    1.6187    0.0000 C   0  0  0  0  0  0  0  0  0  0  0  0
   -1.6962    2.4438    0.0000 C   0  0  0  0  0  0  0  0  0  0  0  0
    0.5804    2.8786    0.0000 C   0  0  0  0  0  0  0  0  0  0  0  0
   -0.1341    2.4661    0.0000 C   0  0  0  0  0  0  0  0  0  0  0  0
   -0.1341    1.6411    0.0000 C   0  0  0  0  0  0  0  0  0  0  0  0
    0.5804    1.2286    0.0000 C   0  0  0  0  0  0  0  0  0  0  0  0
    1.2948    1.6411    0.0000 C   0  0  0  0  0  0  0  0  0  0  0  0
    1.2948    2.4661    0.0000 C   0  0  0  0  0  0  0  0  0  0  0  0
   -0.8705    0.2893    0.0000 C   0  0  0  0  0  0  0  0  0  0  0  0
   -1.5850   -0.1232    0.0000 C   0  0  0  0  0  0  0  0  0  0  0  0
   -1.5850   -0.9482    0.0000 C   0  0  0  0  0  0  0  0  0  0  0  0
   -0.8705   -1.3607    0.0000 C   0  0  0  0  0  0  0  0  0  0  0  0
   -0.1561   -0.9482    0.0000 C   0  0  0  0  0  0  0  0  0  0  0  0
   -0.1561   -0.1232    0.0000 C   0  0  0  0  0  0  0  0  0  0  0  0
   -0.9818    1.2062    0.0000 C   0  0  0  0  0  0  0  0  0  0  0  0
   -0.8274   -2.1846    0.0000 N   0  0  0  0  0  0  0  0  0  0  0  0
   -1.5976   -2.4803    0.0000 C   0  0  0  0  0  0  0  0  0  0  0  0
   -0.1355   -2.6339    0.0000 C   0  0  0  0  0  0  0  0  0  0  0  0
    2.0794    2.7210    0.0000 N   0  3  0  0  0  0  0  0  0  0  0  0
    2.0794    3.5460    0.0000 C   0  0  0  0  0  0  0  0  0  0  0  0
    2.7469    2.2361    0.0000 C   0  0  0  0  0  0  0  0  0  0  0  0
   -3.7663    2.9629    0.0000 N   0  0  0  0  0  0  0  0  0  0  0  0
   -3.3538    3.6774    0.0000 C   0  0  0  0  0  0  0  0  0  0  0  0
   -4.5200    2.6274    0.0000 C   0  0  0  0  0  0  0  0  0  0  0  0
  1  2  1  0  0  0  0
  2  3  2  0  0  0  0
  3  4  1  0  0  0  0
  4  5  2  0  0  0  0
  5  6  1  0  0  0  0
  1  6  2  0  0  0  0
  7  8  2  0  0  0  0
  8  9  1  0  0  0  0
  9 10  1  0  0  0  0
 10 11  2  0  0  0  0
 11 12  1  0  0  0  0
  7 12  1  0  0  0  0
 13 14  1  0  0  0  0
 14 15  2  0  0  0  0
 15 16  1  0  0  0  0
 16 17  2  0  0  0  0
 17 18  1  0  0  0  0
 13 18  2  0  0  0  0
  5 19  1  0  0  0  0
 19  9  2  0  0  0  0
 19 13  1  0  0  0  0
 16 20  1  0  0  0  0
 20 21  1  0  0  0  0
 20 22  1  0  0  0  0
 12 23  2  0  0  0  0
 23 24  1  0  0  0  0
 23 25  1  0  0  0  0
  2 26  1  0  0  0  0
 26 27  1  0  0  0  0
 26 28  1  0  0  0  0
M  CHG  1  23   1
M  END
