
  Mrv1816 07171812582D          

 17 19  0  0  0  0            999 V2000
   -3.5045    2.2759    0.0000 C   0  0  0  0  0  0  0  0  0  0  0  0
   -4.2189    1.8634    0.0000 C   0  0  0  0  0  0  0  0  0  0  0  0
   -4.2189    1.0384    0.0000 C   0  0  0  0  0  0  0  0  0  0  0  0
   -3.5045    0.6259    0.0000 C   0  0  0  0  0  0  0  0  0  0  0  0
   -2.7900    1.0384    0.0000 C   0  0  0  0  0  0  0  0  0  0  0  0
   -2.7900    1.8634    0.0000 C   0  0  0  0  0  0  0  0  0  0  0  0
   -2.0054    2.1184    0.0000 N   0  0  0  0  0  0  0  0  0  0  0  0
   -2.0054    0.7835    0.0000 O   0  0  0  0  0  0  0  0  0  0  0  0
   -1.5205    1.4509    0.0000 C   0  0  0  0  0  0  0  0  0  0  0  0
   -0.8949   -0.1158    0.0000 C   0  0  0  0  0  0  0  0  0  0  0  0
   -0.3757    0.5254    0.0000 C   0  0  0  0  0  0  0  0  0  0  0  0
   -0.6713    1.2956    0.0000 C   0  0  0  0  0  0  0  0  0  0  0  0
   -0.5992   -0.8860    0.0000 C   0  0  0  0  0  0  0  0  0  0  0  0
    0.2156   -1.0151    0.0000 C   0  0  0  0  0  0  0  0  0  0  0  0
    0.7348   -0.3739    0.0000 C   0  0  0  0  0  0  0  0  0  0  0  0
    0.4392    0.3963    0.0000 C   0  0  0  0  0  0  0  0  0  0  0  0
   -4.9540    2.2379    0.0000 N   0  0  0  0  0  0  0  0  0  0  0  0
  1  2  2  0  0  0  0
  2  3  1  0  0  0  0
  3  4  2  0  0  0  0
  4  5  1  0  0  0  0
  5  6  2  0  0  0  0
  1  6  1  0  0  0  0
  8  9  1  0  0  0  0
  7  9  2  0  0  0  0
  7  6  1  0  0  0  0
  5  8  1  0  0  0  0
 10 11  1  0  0  0  0
 11 12  1  0  0  0  0
  9 12  1  0  0  0  0
 13 14  1  0  0  0  0
 14 15  2  0  0  0  0
 15 16  1  0  0  0  0
 10 13  2  0  0  0  0
 11 16  2  0  0  0  0
  2 17  1  0  0  0  0
M  END
