
  Mrv1816 07111815122D          

 23 24  0  0  0  0            999 V2000
   -2.8232    2.6341    0.0000 C   0  0  0  0  0  0  0  0  0  0  0  0
   -3.2134    1.9643    0.0000 C   0  0  0  0  0  0  0  0  0  0  0  0
   -2.8232    1.2052    0.0000 C   0  0  0  0  0  0  0  0  0  0  0  0
   -1.9982    1.2052    0.0000 C   0  0  0  0  0  0  0  0  0  0  0  0
   -1.5857    1.9196    0.0000 C   0  0  0  0  0  0  0  0  0  0  0  0
   -1.9982    2.6341    0.0000 C   0  0  0  0  0  0  0  0  0  0  0  0
   -1.5625    0.7298    0.0000 C   0  0  0  0  0  0  0  0  0  0  0  0
   -1.5625   -0.0952    0.0000 C   0  0  0  0  0  0  0  0  0  0  0  0
   -0.8481   -0.5077    0.0000 O   0  0  0  0  0  0  0  0  0  0  0  0
   -0.1336   -0.0952    0.0000 C   0  0  0  0  0  0  0  0  0  0  0  0
   -0.1336    0.7298    0.0000 C   0  0  0  0  0  0  0  0  0  0  0  0
    1.8478    2.7217    0.0000 C   0  0  0  0  0  0  0  0  0  0  0  0
    1.0239    2.6785    0.0000 C   0  0  0  0  0  0  0  0  0  0  0  0
    0.6493    1.9434    0.0000 N   0  3  0  0  0  0  0  0  0  0  0  0
    1.0987    1.2515    0.0000 C   0  0  0  0  0  0  0  0  0  0  0  0
    1.9225    1.2947    0.0000 C   0  0  0  0  0  0  0  0  0  0  0  0
    2.2971    2.0298    0.0000 O   0  0  0  0  0  0  0  0  0  0  0  0
   -4.0204    1.7928    0.0000 O   0  0  0  0  0  0  0  0  0  0  0  0
   -4.6335    1.2407    0.0000 C   0  0  0  0  0  0  0  0  0  0  0  0
   -0.7618    1.9628    0.0000 P   0  0  0  0  0  0  0  0  0  0  0  0
   -0.5483    2.7597    0.0000 S   0  0  0  0  0  0  0  0  0  0  0  0
    0.0632    1.9628    0.0000 S   0  5  0  0  0  0  0  0  0  0  0  0
   -0.8481    1.1423    0.0000 N   0  0  0  0  0  0  0  0  0  0  0  0
  1  2  1  0  0  0  0
  2  3  2  0  0  0  0
  3  4  1  0  0  0  0
  4  5  2  0  0  0  0
  5  6  1  0  0  0  0
  1  6  2  0  0  0  0
  7  8  1  0  0  0  0
  8  9  1  0  0  0  0
  9 10  1  0  0  0  0
 10 11  1  0  0  0  0
 12 13  1  0  0  0  0
 13 14  1  0  0  0  0
 14 15  1  0  0  0  0
 15 16  1  0  0  0  0
 16 17  1  0  0  0  0
 12 17  1  0  0  0  0
  2 18  1  0  0  0  0
 18 19  1  0  0  0  0
  5 20  1  0  0  0  0
 20 21  2  0  0  0  0
 20 22  1  0  0  0  0
 20 23  1  0  0  0  0
 23  7  1  0  0  0  0
 23 11  1  0  0  0  0
M  CHG  2  14   1  22  -1
M  END
