


 33 35  0  0001  0  0  0  0  0999 V2000
    4.7916   -3.1517    0.0000 C   0  0  0  0  0  0  0  0  0  0  0
    3.6386   -2.4855    0.0000 C   0  0  0  0  0  0  0  0  0  0  0
    3.6386   -1.1531    0.0000 C   0  0  0  0  0  0  0  0  0  0  0
    2.4855   -0.4868    0.0000 C   0  0  0  0  0  0  0  0  0  0  0
    1.3324   -1.1531    0.0000 C   0  0  0  0  0  0  0  0  0  0  0
    0.6662    0.0000    0.0000 H   0  0  0  0  0  0  0  0  0  0  0
    0.0000   -1.1531    0.0000 O   0  0  0  0  0  0  0  0  0  0  0
    1.3324   -2.4855    0.0000 C   0  0  0  0  0  0  0  0  0  0  0
    2.4855   -3.1517    0.0000 C   0  0  0  0  0  0  0  0  0  0  0
    2.4855   -4.4713    0.0000 C   0  0  0  0  0  0  0  0  0  0  0
    3.6386   -5.1375    0.0000 C   0  0  0  0  0  0  0  0  0  0  0
    3.6386   -6.4700    0.0000 C   0  0  0  0  0  0  0  0  0  0  0
    2.4855   -7.1362    0.0000 C   0  0  0  0  0  0  0  0  0  0  0
    2.4855   -8.4686    0.0000 C   0  0  0  0  0  0  0  0  0  0  0
    3.6386   -9.1348    0.0000 C   0  0  0  0  0  0  0  0  0  0  0
    4.7916   -8.4686    0.0000 C   0  0  0  0  0  0  0  0  0  0  0
    5.0222   -9.7754    0.0000 C   0  0  0  0  0  0  0  0  0  0  0
    4.7916   -7.1362    0.0000 C   0  0  0  0  0  0  0  0  0  0  0
    5.0222   -5.8294    0.0000 H   0  0  0  0  0  0  0  0  0  0  0
    6.0472   -6.7262    0.0000 C   0  0  0  0  0  0  0  0  0  0  0
    6.8287   -7.8024    0.0000 C   0  0  0  0  0  0  0  0  0  0  0
    6.0472   -8.8786    0.0000 C   0  0  0  0  0  0  0  0  0  0  0
    5.7781  -10.1854    0.0000 H   0  0  0  0  0  0  0  0  0  0  0
    7.0337   -9.7626    0.0000 C   0  0  0  0  0  0  0  0  0  0  0
    6.1497  -10.7619    0.0000 H   0  0  0  0  0  0  0  0  0  0  0
    7.9305   -8.7761    0.0000 C   0  0  0  0  0  0  0  0  0  0  0
    8.0330  -10.6594    0.0000 C   0  0  0  0  0  0  0  0  0  0  0
    9.2886  -10.2494    0.0000 C   0  0  0  0  0  0  0  0  0  0  0
   10.2879  -11.1335    0.0000 C   0  0  0  0  0  0  0  0  0  0  0
   11.5434  -10.7235    0.0000 C   0  0  0  0  0  0  0  0  0  0  0
   11.9534  -11.9918    0.0000 C   0  0  0  0  0  0  0  0  0  0  0
   11.1335   -9.4679    0.0000 C   0  0  0  0  0  0  0  0  0  0  0
   12.8118  -10.3135    0.0000 O   0  0  0  0  0  0  0  0  0  0  0
  1  2  2  0
  2  3  1  0
  2  9  1  0
  3  4  1  0
  4  5  1  0
  5  6  1  6
  5  7  1  0
  5  8  1  0
  8  9  1  0
  9 10  2  0
 10 11  1  0
 11 12  2  0
 12 13  1  0
 12 18  1  0
 13 14  1  0
 14 15  1  0
 15 16  1  0
 16 17  1  6
 16 18  1  0
 16 22  1  0
 18 19  1  1
 18 20  1  0
 20 21  1  0
 21 22  1  0
 22 23  1  1
 22 24  1  0
 24 25  1  1
 24 26  1  0
 24 27  1  0
 27 28  1  0
 28 29  1  0
 29 30  1  0
 30 31  1  0
 30 32  1  0
 30 33  1  0
M  END

> <StdInChI>
InChI=1S/C27H44O2/c1-19-10-13-23(28)18-22(19)12-11-21-9-7-17-27(5)24(14-15-25(21)27)20(2)8-6-16-26(3,4)29/h11-12,20,23-25,28-29H,1,6-10,13-18H2,2-5H3/b21-11+,22-12-/t20-,23+,24-,25+,27-/m1/s1

> <StdInChIKey>
JWUBBDSIWDLEOM-DTOXIADCSA-N

> <AuxInfo>
1/0/N:1,26,31,32,17,28,14,27,13,3,11,10,4,21,20,29,15,8,2,24,12,9,5,22,18,30,16,7,33/E:(3,4)/it:im/rA:33cCCCCCHOCCCCCCCCCCCHCCCHCHCCCCCCCO/rB:d1;s2;s3;s4;N5;s5;s5;s2s8;d9;s10;d11;s12;s13;s14;s15;N16;s12s16;P18;s18;s20;s16s21;P22;s22;P24;s24;s24;s27;s28;s29;s30;s30;s30;/rC:4.7916,-3.1517,0;3.6386,-2.4855,0;3.6386,-1.1531,0;2.4855,-.4868,0;1.3324,-1.1531,0;.6662,0,0;0,-1.1531,0;1.3324,-2.4855,0;2.4855,-3.1517,0;2.4855,-4.4713,0;3.6386,-5.1375,0;3.6386,-6.47,0;2.4855,-7.1362,0;2.4855,-8.4686,0;3.6386,-9.1348,0;4.7916,-8.4686,0;5.0222,-9.7754,0;4.7916,-7.1362,0;5.0222,-5.8294,0;6.0472,-6.7262,0;6.8287,-7.8024,0;6.0472,-8.8786,0;5.7781,-10.1854,0;7.0337,-9.7626,0;6.1497,-10.7619,0;7.9305,-8.7761,0;8.033,-10.6594,0;9.2886,-10.2494,0;10.2879,-11.1335,0;11.5434,-10.7235,0;11.9534,-11.9918,0;11.1335,-9.4679,0;12.8118,-10.3135,0;

> <Formula>
C27 H44 O2

> <Mw>
400.6371

> <SMILES>
C=C1/C(=C\C=C2\[C@@]3(CC[C@@]([C@@](CCCC(O)(C)C)(C)[H])([H])[C@@]3(C)CCC\2)[H])/C[C@](O)([H])CC1

> <CSID>
4446820

$$$$
