


 19 20  0  0001  0  0  0  0  0999 V2000
    3.1330   -3.0457    0.0000 O   0  0  0  0  0  0  0  0  0  0  0
    2.4607   -0.9766    0.0000 O   0  0  0  0  0  0  0  0  0  0  0
    6.3031   -2.9412    0.0000 O   0  0  0  0  0  0  0  0  0  0  0
    2.4888    0.3021    0.0000 O   0  0  0  0  0  0  0  0  0  0  0
    4.2208    0.3021    0.0000 N   0  0  0  0  0  0  0  0  0  0  0
    3.3548    1.8021    0.0000 N   0  0  0  0  0  0  0  0  0  0  0
    4.2208    3.3021    0.0000 N   0  0  0  0  0  0  0  0  0  0  0
    4.7208   -2.2367    0.0000 C   0  0  0  0  0  0  0  0  0  0  0
    4.2208   -0.6979    0.0000 C   0  0  0  0  0  0  0  0  0  0  0
    5.0298   -1.2857    0.0000 C   0  0  0  0  0  0  0  0  0  0  0
    3.7208   -2.2367    0.0000 C   0  0  0  0  0  0  0  0  0  0  0
    3.4118   -1.2857    0.0000 C   0  0  0  0  0  0  0  0  0  0  0
    5.3086   -3.0457    0.0000 C   0  0  0  0  0  0  0  0  0  0  0
    5.0868    0.8021    0.0000 C   0  0  0  0  0  0  0  0  0  0  0
    3.3548    0.8021    0.0000 C   0  0  0  0  0  0  0  0  0  0  0
    5.0868    1.8021    0.0000 C   0  0  0  0  0  0  0  0  0  0  0
    4.2208    2.3021    0.0000 C   0  0  0  0  0  0  0  0  0  0  0
    4.7578    3.6121    0.0000 H   0  0  0  0  0  0  0  0  0  0  0
    3.6839    3.6121    0.0000 H   0  0  0  0  0  0  0  0  0  0  0
 11  1  1  1
 12  2  1  1
  3 13  1  0
  4 15  2  0
  9  5  1  6
  5 14  1  0
  5 15  1  0
  6 15  1  0
  6 17  2  0
  7 17  1  0
  7 18  1  0
  7 19  1  0
  8 10  1  0
  8 11  1  0
  8 13  1  6
  9 10  1  0
  9 12  1  0
 11 12  1  0
 14 16  2  0
 16 17  1  0
M  END

> <PUBCHEM_BONDANNOTATIONS>
11  1  5
14  16  8
16  17  8
12  2  5
5  14  8
5  15  8
9  5  6
6  15  8
6  17  8
8  13  6

> <StdInChI>
InChI=1S/C10H15N3O4/c11-7-1-2-13(10(17)12-7)6-3-5(4-14)8(15)9(6)16/h1-2,5-6,8-9,14-16H,3-4H2,(H2,11,12,17)/t5-,6-,8-,9+/m1/s1

> <StdInChIKey>
UAZJPMMKWBPACD-GCXDCGAKSA-N

> <AuxInfo>
1/1/N:16,14,10,13,8,9,17,11,12,15,7,6,5,3,1,2,4/it:im/rA:32cOOOONNNCCCCCCCCCCHHHHHHHHHHHHHHH/rB:;;;;;;;n5;s8s9;p1s8;p2s9s11;s3N8;s5;d4s5s6;d14;d6s7s16;s8;s9;s10;s10;s11;s12;s13;s13;s2;s1;s14;s3;s16;s7;s7;/rC:3.133,-3.0457,0;2.4607,-.9766,0;6.3031,-2.9412,0;2.4888,.3021,0;4.2208,.3021,0;3.3548,1.8021,0;4.2208,3.3021,0;4.7208,-2.2367,0;4.2208,-.6979,0;5.0298,-1.2857,0;3.7208,-2.2367,0;3.4118,-1.2857,0;5.3086,-3.0457,0;5.0868,.8021,0;3.3548,.8021,0;5.0868,1.8021,0;4.2208,2.3021,0;4.4393,-2.7891,0;3.6684,-.4164,0;5.5962,-1.5378,0;5.3398,-.7487,0;3.1085,-2.1397,0;2.9734,-1.7241,0;4.7514,-3.3175,0;5.4795,-3.6417,0;2,-1.3915,0;3.3852,-3.6121,0;5.6238,.4921,0;6.6676,-3.4428,0;5.6238,2.1121,0;4.7578,3.6121,0;3.6839,3.6121,0;

> <Formula>
C10 H15 N3 O4

> <Mw>
241.2438

> <SMILES>
O([H])[C@@]1([H])[C@]([H])([C@@]([H])(C([H])([H])[C@]1([H])C([H])([H])O[H])N1C(N=C(C([H])=C1[H])N([H])[H])=O)O[H]

> <CSID>
404769

$$$$
