
  Mrv1816 07121819072D          

 27 30  0  0  0  0            999 V2000
   -3.5938    2.0750    0.0000 C   0  0  0  0  0  0  0  0  0  0  0  0
   -4.3082    1.6625    0.0000 C   0  0  0  0  0  0  0  0  0  0  0  0
   -4.3082    0.8375    0.0000 C   0  0  0  0  0  0  0  0  0  0  0  0
   -3.5938    0.4250    0.0000 C   0  0  0  0  0  0  0  0  0  0  0  0
   -2.8793    0.8375    0.0000 C   0  0  0  0  0  0  0  0  0  0  0  0
   -2.8793    1.6625    0.0000 C   0  0  0  0  0  0  0  0  0  0  0  0
   -2.1648    2.0750    0.0000 C   0  0  0  0  0  0  0  0  0  0  0  0
   -2.1648    0.4250    0.0000 O   0  0  0  0  0  0  0  0  0  0  0  0
   -1.4504    0.8375    0.0000 C   0  0  0  0  0  0  0  0  0  0  0  0
   -1.4504    1.6625    0.0000 C   0  0  0  0  0  0  0  0  0  0  0  0
   -0.7359    2.0750    0.0000 C   0  0  0  0  0  0  0  0  0  0  0  0
   -0.5796    0.2911    0.0000 N   0  0  0  0  0  0  0  0  0  0  0  0
   -0.0214    1.6625    0.0000 O   0  0  0  0  0  0  0  0  0  0  0  0
   -0.7813   -0.7938    0.0000 C   0  0  0  0  0  0  0  0  0  0  0  0
   -1.4487   -1.2787    0.0000 S   0  0  0  0  0  0  0  0  0  0  0  0
   -1.1938   -2.0633    0.0000 C   0  0  0  0  0  0  0  0  0  0  0  0
   -0.3687   -2.0633    0.0000 C   0  0  0  0  0  0  0  0  0  0  0  0
   -0.1138   -1.2787    0.0000 C   0  0  0  0  0  0  0  0  0  0  0  0
   -1.6062   -2.7777    0.0000 C   0  0  0  0  0  0  0  0  0  0  0  0
   -1.1937   -3.4922    0.0000 C   0  0  0  0  0  0  0  0  0  0  0  0
   -0.3687   -3.4922    0.0000 C   0  0  0  0  0  0  0  0  0  0  0  0
    0.0438   -2.7778    0.0000 C   0  0  0  0  0  0  0  0  0  0  0  0
   -0.7359    2.9000    0.0000 N   0  0  0  0  0  0  0  0  0  0  0  0
    0.6399   -0.9431    0.0000 C   0  0  0  0  0  0  0  0  0  0  0  0
    1.3318   -1.3925    0.0000 O   0  0  0  0  0  0  0  0  0  0  0  0
    0.8114   -0.1362    0.0000 N   0  0  0  0  0  0  0  0  0  0  0  0
   -4.9757    0.3526    0.0000 O   0  0  0  0  0  0  0  0  0  0  0  0
  1  2  2  0  0  0  0
  2  3  1  0  0  0  0
  3  4  2  0  0  0  0
  4  5  1  0  0  0  0
  5  6  2  0  0  0  0
  1  6  1  0  0  0  0
  8  9  1  0  0  0  0
  7 10  2  0  0  0  0
  7  6  1  0  0  0  0
  5  8  1  0  0  0  0
 11 13  2  0  0  0  0
  9 12  2  0  0  0  0
 11 10  1  0  0  0  0
 10  9  1  0  0  0  0
 14 15  1  0  0  0  0
 15 16  1  0  0  0  0
 16 17  2  0  0  0  0
 17 18  1  0  0  0  0
 14 18  2  0  0  0  0
 19 20  1  0  0  0  0
 20 21  1  0  0  0  0
 21 22  1  0  0  0  0
 16 19  1  0  0  0  0
 22 17  1  0  0  0  0
 11 23  1  0  0  0  0
 12 14  1  0  0  0  0
 18 24  1  0  0  0  0
 24 25  2  0  0  0  0
 24 26  1  0  0  0  0
  3 27  1  0  0  0  0
M  END
