


 30 32  0  0001  0  0  0  0  0999 V2000
    0.0000  -10.4839    0.0000 O   0  0  0  0  0  0  0  0  0  0  0
    4.5139   -2.6322    0.0000 C   0  0  0  0  0  0  0  0  0  0  0
    4.5027   -3.9203    0.0000 C   0  0  0  0  0  0  0  0  0  0  0
    5.6340   -1.9937    0.0000 C   0  0  0  0  0  0  0  0  0  0  0
    3.4050   -4.5587    0.0000 C   0  0  0  0  0  0  0  0  0  0  0
    6.7428   -3.9315    0.0000 C   0  0  0  0  0  0  0  0  0  0  0
    6.7540   -2.6434    0.0000 C   0  0  0  0  0  0  0  0  0  0  0
    3.4050   -1.9937    0.0000 C   0  0  0  0  0  0  0  0  0  0  0
    5.6340   -0.6720    0.0000 C   0  0  0  0  0  0  0  0  0  0  0
    4.5027   -1.3441    0.0000 C   0  0  0  0  0  0  0  0  0  0  0
    2.2737   -3.9203    0.0000 C   0  0  0  0  0  0  0  0  0  0  0
    2.2737   -2.6322    0.0000 C   0  0  0  0  0  0  0  0  0  0  0
    3.4050   -5.8580    0.0000 C   0  0  0  0  0  0  0  0  0  0  0
    6.7316   -0.0448    0.0000 C   0  0  0  0  0  0  0  0  0  0  0
    4.4915   -0.0672    0.0000 C   0  0  0  0  0  0  0  0  0  0  0
    2.2850   -6.5076    0.0000 C   0  0  0  0  0  0  0  0  0  0  0
    2.2850   -7.8405    0.0000 C   0  0  0  0  0  0  0  0  0  0  0
    7.8517   -0.6832    0.0000 C   0  0  0  0  0  0  0  0  0  0  0
    3.4386   -8.5014    0.0000 C   0  0  0  0  0  0  0  0  0  0  0
    1.1537   -8.4902    0.0000 C   0  0  0  0  0  0  0  0  0  0  0
    8.9718   -0.0224    0.0000 C   0  0  0  0  0  0  0  0  0  0  0
    1.1537   -9.8230    0.0000 C   0  0  0  0  0  0  0  0  0  0  0
    3.4386   -9.8342    0.0000 C   0  0  0  0  0  0  0  0  0  0  0
    2.3074  -10.4839    0.0000 C   0  0  0  0  0  0  0  0  0  0  0
    4.5811   -7.8293    0.0000 C   0  0  0  0  0  0  0  0  0  0  0
   10.0919   -0.6608    0.0000 C   0  0  0  0  0  0  0  0  0  0  0
   11.2007    0.0000    0.0000 C   0  0  0  0  0  0  0  0  0  0  0
   10.1031   -1.9489    0.0000 C   0  0  0  0  0  0  0  0  0  0  0
    4.5699   -5.1859    0.0000 H   0  0  0  0  0  0  0  0  0  0  0
    6.7652   -1.3217    0.0000 H   0  0  0  0  0  0  0  0  0  0  0
 22  1  1  6
  2  3  1  0
  2  4  1  0
  2  8  1  0
  2 10  1  1
  3  5  1  0
  3  6  1  0
  3 29  1  6
  4  7  1  0
  4  9  1  0
  4 30  1  6
  5 11  1  0
  5 13  2  0
  6  7  1  0
  8 12  1  0
  9 14  1  0
  9 15  1  6
 11 12  1  0
 13 16  1  0
 14 18  1  0
 16 17  2  0
 17 19  1  0
 17 20  1  0
 18 21  1  0
 19 23  1  0
 19 25  2  0
 20 22  1  0
 21 26  1  0
 22 24  1  0
 23 24  1  0
 26 27  1  0
 26 28  1  0
M  END

> <StdInChI>
InChI=1S/C27H44O/c1-19(2)8-6-9-21(4)25-15-16-26-22(10-7-17-27(25,26)5)12-13-23-18-24(28)14-11-20(23)3/h12-13,19,21,24-26,28H,3,6-11,14-18H2,1-2,4-5H3/b22-12+,23-13-/t21-,24+,25-,26+,27-/m1/s1

> <StdInChIKey>
QYSXJUFSXHHAJI-YRZJJWOYSA-N

> <AuxInfo>
1/0/N:27,28,25,15,10,18,12,21,14,11,23,13,16,24,7,6,8,20,26,19,9,5,17,22,4,3,2,1/E:(1,2)/it:im/rA:30cOCCCCCCCCCCCCCCCCCCCCCCCCCCCHH/rB:;s2;s2;s3;s3;s4s6;s2;s4;P2;s5;s8s11;d5;s9;N9;s13;d16;s14;s17;s17;s18;n1s20;s19;s22s23;d19;s21;s26;s26;N3;N4;/rC:0,-10.4839,0;4.5139,-2.6322,0;4.5027,-3.9203,0;5.634,-1.9937,0;3.405,-4.5587,0;6.7428,-3.9315,0;6.754,-2.6434,0;3.405,-1.9937,0;5.634,-.672,0;4.5027,-1.3441,0;2.2737,-3.9203,0;2.2737,-2.6322,0;3.405,-5.858,0;6.7316,-.0448,0;4.4915,-.0672,0;2.285,-6.5076,0;2.285,-7.8405,0;7.8517,-.6832,0;3.4386,-8.5014,0;1.1537,-8.4902,0;8.9718,-.0224,0;1.1537,-9.823,0;3.4386,-9.8342,0;2.3074,-10.4839,0;4.5811,-7.8293,0;10.0919,-.6608,0;11.2007,0,0;10.1031,-1.9489,0;4.5699,-5.1859,0;6.7652,-1.3217,0;

> <Formula>
C27 H44 O

> <Mw>
384.6377

> <SMILES>
O[C@H]1CCC(=C)/C(/C1)=C\C=C1/CCC[C@]2(C)[C@@]([H])([C@H](C)CCCC(C)C)CC[C@]2/1[H]

> <CSID>
4444353

$$$$
