


 39 43  0  0001  0  0  0  0  0999 V2000
    1.1524   -1.3297    0.0000 C   0  0  0  0  0  0  0  0  0  0  0
    0.0000   -2.0009    0.0000 C   0  0  0  0  0  0  0  0  0  0  0
    0.0000   -3.3306    0.0000 C   0  0  0  0  0  0  0  0  0  0  0
    1.1524   -3.9892    0.0000 C   0  0  0  0  0  0  0  0  0  0  0
    1.1524   -5.3189    0.0000 O   0  0  0  0  0  0  0  0  0  0  0
    0.4812   -6.4713    0.0000 C   0  0  0  0  0  0  0  0  0  0  0
    2.3049   -2.0009    0.0000 C   0  0  0  0  0  0  0  0  0  0  0
    2.3049   -3.3306    0.0000 C   0  0  0  0  0  0  0  0  0  0  0
    3.4573   -1.3297    0.0000 C   0  0  0  0  0  0  0  0  0  0  0
    3.4573   -3.9892    0.0000 C   0  0  0  0  0  0  0  0  0  0  0
    4.6097   -2.0009    0.0000 C   0  0  0  0  0  0  0  0  0  0  0
    4.6097   -3.3306    0.0000 C   0  0  0  0  0  0  0  0  0  0  0
    5.7621   -1.3297    0.0000 C   0  0  0  0  0  0  0  0  0  0  0
    5.7621   -3.9892    0.0000 C   0  0  0  0  0  0  0  0  0  0  0
    3.4573    0.0000    0.0000 O   0  0  0  0  0  0  0  0  0  0  0
    3.4573   -5.3189    0.0000 O   0  0  0  0  0  0  0  0  0  0  0
    5.7621    0.0000    0.0000 O   0  0  0  0  0  0  0  0  0  0  0
    5.7621   -5.3189    0.0000 O   0  0  0  0  0  0  0  0  0  0  0
    6.9019   -2.0009    0.0000 C   0  0  0  0  0  0  0  0  0  0  0
    6.9019   -3.3306    0.0000 C   0  0  0  0  0  0  0  0  0  0  0
    8.0543   -1.3297    0.0000 C   0  0  0  0  0  0  0  0  0  0  0
    8.0543   -3.9892    0.0000 C   0  0  0  0  0  0  0  0  0  0  0
    9.2068   -3.3306    0.0000 C   0  0  0  0  0  0  0  0  0  0  0
    9.2068   -2.0009    0.0000 C   0  0  0  0  0  0  0  0  0  0  0
   10.3592   -1.3297    0.0000 C   0  0  0  0  0  0  0  0  0  0  0
   10.3592    0.0000    0.0000 O   0  0  0  0  0  0  0  0  0  0  0
   11.5116   -2.0009    0.0000 C   0  0  0  0  0  0  0  0  0  0  0
   12.6641   -1.3297    0.0000 O   0  0  0  0  0  0  0  0  0  0  0
   10.3592   -2.6595    0.0000 O   0  0  0  0  0  0  0  0  0  0  0
    8.0543   -5.3189    0.0000 O   0  0  0  0  0  0  0  0  0  0  0
    9.2068   -5.9901    0.0000 C   0  0  0  0  0  0  0  0  0  0  0
    9.2068   -7.3198    0.0000 C   0  0  0  0  0  0  0  0  0  0  0
   10.3592   -5.3189    0.0000 O   0  0  0  0  0  0  0  0  0  0  0
   11.5116   -5.9901    0.0000 C   0  0  0  0  0  0  0  0  0  0  0
   12.6641   -5.3189    0.0000 C   0  0  0  0  0  0  0  0  0  0  0
   11.5116   -7.3198    0.0000 C   0  0  0  0  0  0  0  0  0  0  0
   10.3592   -7.9784    0.0000 C   0  0  0  0  0  0  0  0  0  0  0
   12.6641   -7.9784    0.0000 O   0  0  0  0  0  0  0  0  0  0  0
   10.3592   -9.3081    0.0000 N   0  0  0  0  0  0  0  0  0  0  0
  1  2  2  0
  1  7  1  0
  2  3  1  0
  3  4  2  0
  4  8  1  0
  4  5  1  0
  5  6  1  0
  7  9  1  0
  7  8  2  0
  8 10  1  0
  9 11  1  0
  9 15  2  0
 10 12  1  0
 10 16  2  0
 11 13  2  0
 11 12  1  0
 12 14  2  0
 13 19  1  0
 13 17  1  0
 14 20  1  0
 14 18  1  0
 19 21  1  0
 19 20  2  0
 20 22  1  0
 21 24  1  0
 22 23  1  0
 22 30  1  6
 23 24  1  0
 24 25  1  0
 24 29  1  6
 25 26  2  0
 25 27  1  0
 27 28  1  0
 31 30  1  6
 31 33  1  0
 31 32  1  0
 32 37  1  0
 33 34  1  0
 34 36  1  0
 34 35  1  1
 36 37  1  0
 36 38  1  1
 37 39  1  1
M  END

> <StdInChI>
InChI=1S/C27H29NO11/c1-10-22(31)13(28)6-17(38-10)39-15-8-27(36,16(30)9-29)7-12-19(15)26(35)21-20(24(12)33)23(32)11-4-3-5-14(37-2)18(11)25(21)34/h3-5,10,13,15,17,22,29,31,33,35-36H,6-9,28H2,1-2H3/t10-,13-,15-,17-,22+,27-/m0/s1

> <StdInChIKey>
AOJJSUZBOXZQNB-TZSSRYMLSA-N

> <AuxInfo>
1/0/N:35,6,2,1,3,32,21,23,27,34,7,19,37,4,22,25,31,8,20,11,12,36,9,13,10,14,24,39,28,26,38,15,17,16,18,29,5,33,30/it:im/rA:39cCCCCOCCCCCCCCCOOOOCCCCCCCOCOOOCCOCCCCON/rB:d1;s2;d3;s4;s5;s1;s4d7;s7;s8;s9;s10s11;d11;d12;d9;d10;s13;s14;s13;s14d19;s19;s20;s22;s21s23;s24;d25;s25;s27;N24;N22;n30;s31;s31;s33;P34;s34;s32s36;P36;P37;/rC:1.1524,-1.3297,0;0,-2.0009,0;0,-3.3306,0;1.1524,-3.9892,0;1.1524,-5.3189,0;.4812,-6.4713,0;2.3049,-2.0009,0;2.3049,-3.3306,0;3.4573,-1.3297,0;3.4573,-3.9892,0;4.6097,-2.0009,0;4.6097,-3.3306,0;5.7621,-1.3297,0;5.7621,-3.9892,0;3.4573,0,0;3.4573,-5.3189,0;5.7621,0,0;5.7621,-5.3189,0;6.9019,-2.0009,0;6.9019,-3.3306,0;8.0543,-1.3297,0;8.0543,-3.9892,0;9.2068,-3.3306,0;9.2068,-2.0009,0;10.3592,-1.3297,0;10.3592,0,0;11.5116,-2.0009,0;12.6641,-1.3297,0;10.3592,-2.6595,0;8.0543,-5.3189,0;9.2068,-5.9901,0;9.2068,-7.3198,0;10.3592,-5.3189,0;11.5116,-5.9901,0;12.6641,-5.3189,0;11.5116,-7.3198,0;10.3592,-7.9784,0;12.6641,-7.9784,0;10.3592,-9.3081,0;

> <Formula>
C27 H29 N O11

> <Mw>
543.5193

> <SMILES>
C1C2=C(C(=O)C3=C(O)C4[C@@H](O[C@H]5C[C@H](N)[C@H](O)[C@H](C)O5)C[C@](O)(C(CO)=O)CC=4C(O)=C3C2=O)C(OC)=CC=1

> <CSID>
29400

$$$$
