
  Mrv1816 07121818232D          

 22 22  0  0  0  0            999 V2000
   -0.7143    0.5348    0.0000 C   0  0  0  0  0  0  0  0  0  0  0  0
   -1.4288    0.1223    0.0000 N   0  0  0  0  0  0  0  0  0  0  0  0
   -1.4288   -0.7027    0.0000 C   0  0  0  0  0  0  0  0  0  0  0  0
   -0.7143   -1.1152    0.0000 N   0  0  0  0  0  0  0  0  0  0  0  0
    0.0002   -0.7027    0.0000 C   0  0  0  0  0  0  0  0  0  0  0  0
    0.0002    0.1223    0.0000 N   0  0  0  0  0  0  0  0  0  0  0  0
    0.7353   -1.0772    0.0000 N   0  0  0  0  0  0  0  0  0  0  0  0
   -2.1990   -0.9983    0.0000 N   0  0  0  0  0  0  0  0  0  0  0  0
   -0.6280    1.3553    0.0000 N   0  0  0  0  0  0  0  0  0  0  0  0
   -0.4990    2.1702    0.0000 C   0  0  0  0  0  0  0  0  0  0  0  0
   -1.1121    2.7222    0.0000 C   0  0  0  0  0  0  0  0  0  0  0  0
    1.4889   -0.7417    0.0000 C   0  0  0  0  0  0  0  0  0  0  0  0
    1.8245    0.0120    0.0000 C   0  0  0  0  0  0  0  0  0  0  0  0
    2.0081   -1.3828    0.0000 C   0  0  0  0  0  0  0  0  0  0  0  0
    2.3038   -0.6126    0.0000 C   0  0  0  0  0  0  0  0  0  0  0  0
   -2.2421   -1.8222    0.0000 C   0  0  0  0  0  0  0  0  0  0  0  0
   -3.0570   -1.9513    0.0000 N   0  0  0  0  0  0  0  0  0  0  0  0
   -2.7181   -0.3572    0.0000 C   0  0  0  0  0  0  0  0  0  0  0  0
   -3.5330   -0.4863    0.0000 O   0  0  0  0  0  0  0  0  0  0  0  0
   -2.8897    0.4498    0.0000 O   0  0  0  0  0  0  0  0  0  0  0  0
   -2.2485    0.9690    0.0000 C   0  0  0  0  0  0  0  0  0  0  0  0
   -3.0138   -1.1274    0.0000 C   0  0  0  0  0  0  0  0  0  0  0  0
  1  2  1  0  0  0  0
  2  3  2  0  0  0  0
  3  4  1  0  0  0  0
  4  5  2  0  0  0  0
  5  6  1  0  0  0  0
  1  6  2  0  0  0  0
  5  7  1  0  0  0  0
  3  8  1  0  0  0  0
  1  9  1  0  0  0  0
  9 10  1  0  0  0  0
 10 11  1  0  0  0  0
  7 12  1  0  0  0  0
 12 13  1  0  0  0  0
 12 14  1  0  0  0  0
 12 15  1  0  0  0  0
  8 16  1  0  0  0  0
 16 17  3  0  0  0  0
 18 19  2  0  0  0  0
 18 20  1  0  0  0  0
 20 21  1  0  0  0  0
 18 22  1  0  0  0  0
 22  8  1  0  0  0  0
M  END
