


 19 21  0  0001  0  0  0  0  0999 V2000
    0.0000   -3.3284    0.0000 C   0  0  0  0  0  0  0  0  0  0  0
    2.3070   -3.3284    0.0000 C   0  0  0  0  0  0  0  0  0  0  0
    2.3070   -1.9988    0.0000 C   0  0  0  0  0  0  0  0  0  0  0
    3.5662   -1.5850    0.0000 N   0  0  0  0  0  0  0  0  0  0  0
    4.3498   -2.6592    0.0000 N   0  0  0  0  0  0  0  0  0  0  0
    1.1535   -3.9888    0.0000 N   0  0  0  0  0  0  0  0  0  0  0
    0.0000   -1.9988    0.0000 N   0  0  0  0  0  0  0  0  0  0  0
    1.1535   -1.3296    0.0000 C   0  0  0  0  0  0  0  0  0  0  0
    1.1535    0.0000    0.0000 N   0  0  0  0  0  0  0  0  0  0  0
    3.5662   -3.7423    0.0000 C   0  0  0  0  0  0  0  0  0  0  0
    3.9184   -5.0191    0.0000 C   0  0  0  0  0  0  0  0  0  0  0
    3.1083   -6.0845    0.0000 O   0  0  0  0  0  0  0  0  0  0  0
    3.8656   -7.1764    0.0000 C   0  0  0  0  0  0  0  0  0  0  0
    5.1423   -6.7977    0.0000 C   0  0  0  0  0  0  0  0  0  0  0
    6.2870   -7.4581    0.0000 O   0  0  0  0  0  0  0  0  0  0  0
    5.1687   -5.4681    0.0000 C   0  0  0  0  0  0  0  0  0  0  0
    6.3222   -4.7989    0.0000 O   0  0  0  0  0  0  0  0  0  0  0
    3.5221   -8.4619    0.0000 C   0  0  0  0  0  0  0  0  0  0  0
    2.2366   -8.8054    0.0000 O   0  0  0  0  0  0  0  0  0  0  0
  1  7  2  0
  1  6  1  0
  2  6  2  0
  2 10  1  0
  2  3  1  0
  3  8  2  0
  3  4  1  0
  4  5  1  0
  5 10  2  0
  7  8  1  0
  8  9  1  0
 11 10  1  1
 11 16  1  0
 11 12  1  0
 12 13  1  0
 13 14  1  0
 13 18  1  1
 14 16  1  0
 14 15  1  6
 16 17  1  6
 18 19  1  0
M  END

> <StdInChI>
InChI=1S/C10H13N5O4/c11-10-6-4(12-2-13-10)5(14-15-6)9-8(18)7(17)3(1-16)19-9/h2-3,7-9,16-18H,1H2,(H,14,15)(H2,11,12,13)/t3-,7-,8-,9+/m1/s1

> <StdInChIKey>
KBHMEHLJSZMEMI-KSYZLYKTSA-N

> <AuxInfo>
1/1/N:18,1,13,2,10,3,14,16,11,8,9,6,7,5,4,19,15,17,12/it:im/rA:19cCCCNNNNCNCCOCCOCOCO/rB:;s2;s3;s4;s1d2;d1;d3s7;s8;s2d5;p10;s11;s12;s13;N14;s11s14;N16;P13;s18;/rC:0,-3.3284,0;2.307,-3.3284,0;2.307,-1.9988,0;3.5662,-1.585,0;4.3498,-2.6592,0;1.1535,-3.9888,0;0,-1.9988,0;1.1535,-1.3296,0;1.1535,0,0;3.5662,-3.7423,0;3.9184,-5.0191,0;3.1083,-6.0845,0;3.8656,-7.1764,0;5.1423,-6.7977,0;6.287,-7.4581,0;5.1687,-5.4681,0;6.3222,-4.7989,0;3.5221,-8.4619,0;2.2366,-8.8054,0;

> <Formula>
C10 H13 N5 O4

> <Mw>
267.2413

> <SMILES>
C1N=C2C(NN=C2[C@@H]2O[C@H](CO)[C@@H](O)[C@H]2O)=C(N)N=1

> <CSID>
394361

$$$$
