
  Mrv1816 07131819412D          

 18 19  0  0  0  0            999 V2000
   -3.2143    1.0259    0.0000 C   0  0  0  0  0  0  0  0  0  0  0  0
   -3.9288    0.6134    0.0000 C   0  0  0  0  0  0  0  0  0  0  0  0
   -3.9288   -0.2116    0.0000 C   0  0  0  0  0  0  0  0  0  0  0  0
   -3.2143   -0.6241    0.0000 C   0  0  0  0  0  0  0  0  0  0  0  0
   -2.4998   -0.2116    0.0000 C   0  0  0  0  0  0  0  0  0  0  0  0
   -2.4998    0.6134    0.0000 C   0  0  0  0  0  0  0  0  0  0  0  0
   -4.3413    1.3279    0.0000 C   0  0  0  0  0  0  0  0  0  0  0  0
   -4.0456    2.0981    0.0000 N   0  0  0  0  0  0  0  0  0  0  0  0
   -1.7461    0.9490    0.0000 N   0  0  0  0  0  0  0  0  0  0  0  0
   -1.0111    0.5744    0.0000 C   0  0  0  0  0  0  0  0  0  0  0  0
   -1.0542   -0.2495    0.0000 O   0  0  0  0  0  0  0  0  0  0  0  0
   -0.2966    0.9869    0.0000 C   0  0  0  0  0  0  0  0  0  0  0  0
    0.4571    0.6514    0.0000 C   0  0  0  0  0  0  0  0  0  0  0  0
    1.1715    1.0639    0.0000 C   0  0  0  0  0  0  0  0  0  0  0  0
    0.4571   -0.1737    0.0000 C   0  0  0  0  0  0  0  0  0  0  0  0
    1.1715   -0.5862    0.0000 C   0  0  0  0  0  0  0  0  0  0  0  0
    1.8860   -0.1737    0.0000 C   0  0  0  0  0  0  0  0  0  0  0  0
    1.8860    0.6514    0.0000 C   0  0  0  0  0  0  0  0  0  0  0  0
  1  2  1  0  0  0  0
  2  3  2  0  0  0  0
  3  4  1  0  0  0  0
  4  5  2  0  0  0  0
  5  6  1  0  0  0  0
  1  6  2  0  0  0  0
  2  7  1  0  0  0  0
  7  8  3  0  0  0  0
  6  9  1  0  0  0  0
  9 10  1  0  0  0  0
 10 11  2  0  0  0  0
 10 12  1  0  0  0  0
 12 13  1  0  0  0  0
 15 16  1  0  0  0  0
 16 17  2  0  0  0  0
 17 18  1  0  0  0  0
 14 18  2  0  0  0  0
 14 13  1  0  0  0  0
 13 15  2  0  0  0  0
M  END
